<?xml version="1.0" encoding="utf-8" ?>
<?iso-639-1 de?>
<!DOCTYPE procon [
  <!ATTLIST match regex CDATA #IMPLIED>
  <!ATTLIST match text CDATA #IMPLIED>
]>
<procon>
  <net>
    <protocols>
      <gametype>
        <loc key="None"     value="None"/>
        <loc key="BF_BC2"   value="Battlefield: Bad Company 2"/>
        <loc key="COD_BO"   value="Call of Duty: Black Ops"/>
        <loc key="MOH_2010" value="Medal of Honor 2010"/>
      </gametype>
    </protocols>
  </net>
</procon>